* [1N4002G] https://www.diodes.com/assets/Spice-Models/Discrete-Prodcut-Groups/Standard-Rectifiers.txt
***************************************************************************************************************************************
*SRC=1N4002G;DI_1N4002G;Diodes;Si;  100V  1.00A  2.00us   Diodes Inc. Glass Passivated Rectifier

.SUBCKT 1N4002G 1 2

D1 1 2 DI_1N4002G
*
.MODEL DI_1N4002G D  
+ IS=65.4p 
+ RS=42.2m 
+ BV=100 
+ IBV=5.00u
+ CJO=14.8p  
+ M=0.333 
+ N=1.36 
+ TT=2.88u 
.ENDS
***************************************************************************************************************************************
