* SOURCE: http://ltwiki.org/index.php?title=Standard.dio
* .model 1N4002 D (Is=14.11n N=1.984 Rs=33.89E-3 Ikf=94.81 Xti=3 Eg=1.110 
* Cjo=51.17E-12 M=.2762 Vj=.3905 Fc=.5 Isr=100.0E-12 Nr=2 Bv=100.1 Ibv=10 
* Tt=4.761E-6 Iave=1 Vpk=100 mfg=GI type=silicon)
.SUBCKT 1N4002 1 2

D1 1 2 1N4002

.MODEL 1N4002 D 
+ IS=14.11E-11
+ N=1.984 
+ RS=33.89E-3 
+ IKF=94.81 
+ XTITUN=3 
+ EG=1.110 
+ CJO=51.17E-12 
+ M=.2762 
+ VJ=.3905 
+ FC=.5 
+ ISR=100.0E-12 
+ NR=2 
+ BV=100.1 
+ IBV=10 
+ TT=4.761E-6 
* + IAVE=1 
* + VPK=100 
* + MFG=GI 
* + TYPE=silicon
.ENDS