* 1N751
* .model 1N751 D(Is=1.004f Rs=.5875 Ikf=0 N=1 Xti=3 Eg=1.11 Cjo=160p M=.5484 Vj=.75 Fc=.5 
* + Isr=1.8n Nr=2 Bv=5.1 Ibv=27.721m Nbv=1.1779 Ibvl=1.1646m Nbvl=21.894 Tbv1=176.47u 
* + Vpk=5.1 mfg=Motorola type=zener)
.SUBCKT 1N751 1 2

D1 1 2 1N751
.MODEL 1N751 D
+ IS=1.004E-15 
+ RS=.5875 
+ IKF=0 
+ N=1 
+ XTITUN=3 
+ EG=1.11 
+ CJO=160E-12 
+ M=.5484 
+ VJ=.75 
+ FC=.5
+ ISR=1.8E-9 
+ NR=2 
+ BV=5.1 
+ IBV=27.721E-3 
+ NBV=1.1779 
* + IBVL=1.1646m 
* + NBVL=21.894 
* + TBVL=176.47u 
* + VPK=5.1 
* + MFG=Motorola 
* + type=zener
.ENDS