.SUBCKT 1N751 1 2

DZ 1 2 1N751

.MODEL 1N751 D
+IS=1.004f 
RS=.5875 
IKF=0 
N=1 
XTITUN=3 
EG=1.11 
CJO=160p 
M=.5484 
VJ=.75 
FC=.5

.ENDS